Version 4
SHEET 1 880 680
WIRE 512 0 320 0
WIRE 512 16 512 0
WIRE 544 16 512 16
WIRE 656 32 608 32
WIRE 768 32 656 32
WIRE 144 48 -112 48
WIRE 320 48 320 0
WIRE 320 48 208 48
WIRE 512 48 496 48
WIRE 544 48 512 48
WIRE 320 112 320 48
WIRE 416 112 416 48
WIRE -112 128 -112 48
WIRE 320 128 320 112
WIRE 512 160 512 48
WIRE 528 160 512 160
WIRE 656 160 656 32
WIRE 656 160 608 160
WIRE 416 208 416 192
WIRE -112 256 -112 208
WIRE 320 256 320 192
FLAG -112 256 0
FLAG 320 256 0
FLAG 576 64 0
FLAG -112 48 V+
FLAG 576 0 V+
FLAG 416 208 0
FLAG 768 112 0
SYMBOL res 336 208 R180
WINDOW 0 36 76 Left 2
WINDOW 3 36 40 Left 2
SYMATTR InstName R1
SYMATTR Value 680k
SYMBOL cap 208 32 R90
WINDOW 0 0 32 VBottom 2
WINDOW 3 32 32 VTop 2
SYMATTR InstName C1
SYMATTR Value 1µ
SYMBOL voltage -112 112 R0
WINDOW 123 0 0 Left 2
WINDOW 39 0 0 Left 2
SYMATTR InstName V1
SYMATTR Value PULSE(0 5 .1 .00000001 1 3 6)
SYMBOL Opamps\\UniversalOpamp2 576 32 R0
SYMATTR InstName U1
SYMBOL res 512 32 R90
WINDOW 0 0 56 VBottom 2
WINDOW 3 32 56 VTop 2
SYMATTR InstName R2
SYMATTR Value 2.2k
SYMBOL res 624 144 R90
WINDOW 0 0 56 VBottom 2
WINDOW 3 32 56 VTop 2
SYMATTR InstName R3
SYMATTR Value 10k
SYMBOL voltage 416 96 R0
WINDOW 123 0 0 Left 2
WINDOW 39 0 0 Left 2
SYMATTR InstName V2
SYMATTR Value 2
SYMBOL res 752 16 R0
SYMATTR InstName R4
SYMATTR Value 1k
TEXT 64 328 Left 2 !.tran 8
